@<TRIPOS>MOLECULE
MOL2  : Made in Gabedit. mol2 file
          8          7          1
 SMALL
 NO_CHARGES
 ****
 ****
@<TRIPOS>ATOM
      1 C          -4.7957    0.2756  -11.9065 C       1  C           0.0000
      2 C          -3.6381    0.3307  -11.7262 C       1  C           0.0000
      3 H          -3.1795    1.2004  -12.3769 H1      1  C           0.0000
      4 H          -3.0830   -0.7027  -11.8444 H1      1  C           0.0000
      5 H          -3.4589    0.5927  -10.5908 H1      1  C           0.0000
      6 H          -5.2295    1.3665  -12.0145 H1      1  C           0.0000
      7 H          -5.3723   -0.3966  -11.1283 H1      1  C           0.0000
      8 H          -4.9787   -0.2910  -12.9240 H1      1  C           0.0000
@<TRIPOS>BOND
     1     1     2    1
     2     1     6    1
     3     1     7    1
     4     1     8    1
     5     2     3    1
     6     2     4    1
     7     2     5    1
@<TRIPOS>SUBSTRUCTURE
    1 RES1       1
